iidm/iidm-serde/src/test/resources/notFoundExtension.xml
<?xml version="1.0" encoding="UTF-8"?>
<iidm:network xmlns:iidm="http://www.powsybl.org/schema/iidm/1_18" xmlns:bar="http://www.itesla_project.eu/schema/iidm/ext/loadbar/1_0" xmlns:mockns="http://www.powsybl.org/schema/iidm/ext/terminal_mock_no_serde/1_0" xmlns:extZip="http://www.itesla_project.eu/schema/iidm/ext/loadzipmodel/1_0" id="test" caseDate="2013-01-15T18:45:00.000+01:00" forecastDistance="0" sourceFormat="test" minimumValidationLevel="STEADY_STATE_HYPOTHESIS">
    <iidm:substation id="substation" country="FR" tso="RTE" geographicalTags="B">
        <iidm:voltageLevel id="VLLOAD" nominalV="150.0" topologyKind="BUS_BREAKER">
            <iidm:busBreakerTopology>
                <iidm:bus id="BLOAD"/>
            </iidm:busBreakerTopology>
            <iidm:load id="LOAD" loadType="UNDEFINED" p0="600.0" q0="200.0" bus="BLOAD" connectableBus="BLOAD"/>
        </iidm:voltageLevel>
    </iidm:substation>
    <iidm:extension id="LOAD">
        <bar:loadBar/>
        <mockns:terminalMockNoSerDe>
            <mockns:terminal id="LOAD"/>
        </mockns:terminalMockNoSerDe>
        <extZip:loadZipModel a1="1.0" a2="2.0" a3="3.0" a4="4.0" a5="5.0" a6="6.0" v0="0.0"/>
    </iidm:extension>
</iidm:network>
